
Note: No compatibility mode selected!


Circuit: * Ψ-xlstm memristor model - ltspice netlist

Doing analysis at TEMP = 27.000000 and TNOM = 27.000000

Using SPARSE 1.3 as Direct Linear Solver
Operating point simulation skipped by 'uic',
  now using transient initial conditions.

No. of Data Rows : 20014

  Measurements for Transient Analysis


Error: measure  i_rms  rms(TRIG) : no such vector as 'i(b_output)'
 .meas tran i_rms rms i(b_output) from=0 to=1m failed!



Total analysis time (seconds) = 0.0926538

Total elapsed time (seconds) = 0.116 

Total DRAM available = 130755.586 MB.
DRAM currently available = 100581.074 MB.
Maximum ngspice program size =   21.102 MB.
Current ngspice program size =   21.102 MB.

