Circuit: * Ψ-xLSTM Memristor Model - LTspice Netlist

Per .tran options, skipping operating point for transient analysis.

i_rms: RMS(i(b_output))=7.14222e-06 FROM 0 TO 0.001


Date: Sat Nov 22 17:27:49 2025
Total elapsed time: 0.166 seconds.

tnom = 27
temp = 27
method = modified trap
totiter = 40035
traniter = 40035
tranpoints = 20018
accept = 20018
rejected = 0
matrix size = 8
fillins = 0
solver = Normal
Avg thread counts: 1.3/1.6/1.6/1.3
Matrix Compiler1:       9 opcodes  0.1/[0.0]/0.1
Matrix Compiler2:      41 opcodes  0.1/[0.1]/0.1

